xflr5 v6.12

 Calculated polar for: NACA 23112 Airfoil cl=0.30 T=12.0% P=15.0%

 1 1 Reynolds number fixed          Mach number fixed         

 xtrf =   1.000 (top)        1.000 (bottom)
 Mach =   0.050     Re =     0.250 e 6     Ncrit =   9.000

  alpha     CL        CD       CDp       Cm    Top Xtr Bot Xtr   Cpmin    Chinge    XCp    
 ------- -------- --------- --------- -------- ------- ------- -------- --------- ---------
  -5.000  -0.5067   0.02144   0.01433   0.0102  1.0000  0.0424  -2.7223   0.0000   0.2652
  -4.500  -0.4341   0.01989   0.01252   0.0069  0.9933  0.0460  -2.4374   0.0000   0.2609
  -4.000  -0.3511   0.01686   0.00947   0.0012  0.9816  0.0522  -2.1150   0.0000   0.2482
  -3.500  -0.2600   0.01528   0.00787  -0.0055  0.9647  0.0601  -1.7637   0.0000   0.2233
  -2.500  -0.1331   0.01230   0.00485  -0.0073  0.9013  0.0862  -1.2908   0.0000   0.1880
  -2.000  -0.0832   0.01146   0.00399  -0.0052  0.8552  0.1216  -1.1154   0.0000   0.1787
  -1.500  -0.0635   0.00846   0.00352   0.0025  0.8038  0.7450  -0.9930   0.0000   0.2816
  -1.000  -0.0148   0.00857   0.00374   0.0064  0.7469  0.8661  -0.8005   0.0000   0.6654
  -0.500   0.0421   0.00913   0.00402   0.0083  0.6899  0.9193  -0.6341   0.0000   0.0521
   0.000   0.1133   0.00980   0.00434   0.0067  0.6278  0.9489  -0.7151   0.0000   0.1878
   0.500   0.2101   0.01052   0.00461  -0.0007  0.5543  0.9688  -0.8161   0.0000   0.2503
   1.000   0.2872   0.01089   0.00455  -0.0052  0.4806  0.9808  -0.9049   0.0000   0.2647
   1.500   0.3658   0.01127   0.00451  -0.0104  0.4149  0.9913  -1.0084   0.0000   0.2744
   2.000   0.4470   0.01159   0.00451  -0.0162  0.3645  0.9999  -1.1157   0.0000   0.2820
   2.500   0.4948   0.01186   0.00464  -0.0153  0.3356  1.0000  -1.1947   0.0000   0.2761
   3.000   0.5419   0.01231   0.00484  -0.0141  0.3100  1.0000  -1.2771   0.0000   0.2709
   3.500   0.5895   0.01251   0.00505  -0.0129  0.2964  1.0000  -1.3732   0.0000   0.2663
   4.000   0.6353   0.01306   0.00544  -0.0113  0.2800  1.0000  -1.4682   0.0000   0.2618
   4.500   0.6816   0.01353   0.00594  -0.0097  0.2693  1.0000  -1.5643   0.0000   0.2578
   5.000   0.7271   0.01389   0.00630  -0.0080  0.2574  1.0000  -1.6763   0.0000   0.2540
   5.500   0.7713   0.01475   0.00714  -0.0061  0.2439  1.0000  -1.7913   0.0000   0.2504
   6.000   0.8165   0.01536   0.00785  -0.0042  0.2361  1.0000  -1.9173   0.0000   0.2471
   6.500   0.8613   0.01583   0.00840  -0.0023  0.2266  1.0000  -2.0635   0.0000   0.2441
   7.000   0.9049   0.01647   0.00900  -0.0003  0.2156  1.0000  -2.2298   0.0000   0.2411
   7.500   0.9487   0.01765   0.01026   0.0016  0.2059  1.0000  -2.4328   0.0000   0.2385
   8.000   0.9931   0.01802   0.01086   0.0036  0.1969  1.0000  -2.6579   0.0000   0.2360
   8.500   1.0365   0.01855   0.01143   0.0055  0.1867  1.0000  -2.9045   0.0000   0.2335
   9.000   1.0783   0.01980   0.01272   0.0075  0.1749  1.0000  -3.2087   0.0000   0.2312
   9.500   1.1222   0.02010   0.01322   0.0093  0.1656  1.0000  -3.5369   0.0000   0.2292
  10.000   1.1637   0.02061   0.01370   0.0112  0.1528  1.0000  -3.8704   0.0000   0.2270
  10.500   1.2042   0.02160   0.01493   0.0131  0.1416  1.0000  -4.1907   0.0000   0.2250
  11.000   1.2442   0.02221   0.01567   0.0151  0.1295  1.0000  -4.5337   0.0000   0.2229
  11.500   1.2770   0.02352   0.01702   0.0177  0.1152  1.0000  -4.8543   0.0000   0.2203
  12.000   1.3093   0.02449   0.01806   0.0201  0.1005  1.0000  -5.1872   0.0000   0.2179
  12.500   1.3269   0.02641   0.02011   0.0243  0.0878  1.0000  -5.4521   0.0000   0.2141
  13.000   1.3377   0.02882   0.02258   0.0280  0.0755  1.0000  -5.6895   0.0000   0.2105
  13.500   1.3372   0.03274   0.02674   0.0309  0.0662  1.0000  -5.8932   0.0000   0.2073
  14.000   1.3386   0.03723   0.03146   0.0315  0.0589  1.0000  -6.1266   0.0000   0.2058
  14.500   1.3178   0.04510   0.03948   0.0295  0.0525  1.0000  -6.2048   0.0000   0.2057
  15.000   1.2887   0.05456   0.04921   0.0268  0.0482  1.0000  -6.2010   0.0000   0.2061


