xflr5 v6.10.03

 Calculated polar for: NACA 23012

 1 1 Reynolds number fixed          Mach number fixed         

 xtrf =   1.000 (top)        1.000 (bottom)
 Mach =   0.050     Re =     0.250 e 6     Ncrit =   9.000

  alpha     CL        CD       CDp       Cm    Top Xtr Bot Xtr   Cpmin    Chinge    XCp    
 ------- -------- --------- --------- -------- ------- ------- -------- --------- ---------
  -5.000  -0.5148   0.02339   0.01645   0.0020  1.0000  0.0430  -2.9254   0.0000   0.2485
  -4.500  -0.4343   0.02003   0.01251  -0.0024  0.9930  0.0457  -2.6690   0.0000   0.2389
  -4.000  -0.3526   0.01778   0.01017  -0.0077  0.9834  0.0503  -2.3546   0.0000   0.2227
  -3.500  -0.2680   0.01591   0.00828  -0.0133  0.9731  0.0566  -2.0322   0.0000   0.1944
  -3.000  -0.1818   0.01419   0.00666  -0.0191  0.9567  0.0666  -1.6940   0.0000   0.1379
  -2.500  -0.1132   0.01287   0.00543  -0.0212  0.9332  0.0804  -1.4322   0.0000   0.0542
  -2.000  -0.0560   0.01177   0.00442  -0.0208  0.9023  0.1066  -1.1967   0.0000  -0.1336
  -1.500  -0.0286   0.00867   0.00369  -0.0150  0.8625  0.6820  -1.0466   0.0000  -0.2920
  -1.000   0.0160   0.00835   0.00373  -0.0104  0.8181  0.8348  -0.8468   0.0000   0.9137
  -0.500   0.0670   0.00858   0.00383  -0.0072  0.7672  0.9037  -0.6501   0.0000   0.3566
   0.000   0.1294   0.00909   0.00403  -0.0066  0.7091  0.9458  -0.7066   0.0000   0.2983
   0.500   0.2205   0.00973   0.00422  -0.0127  0.6378  0.9682  -0.8065   0.0000   0.3043
   1.000   0.3001   0.01013   0.00415  -0.0176  0.5614  0.9818  -0.9015   0.0000   0.3050
   1.500   0.3820   0.01056   0.00409  -0.0233  0.4792  0.9937  -1.0042   0.0000   0.3072
   2.000   0.4518   0.01097   0.00405  -0.0269  0.4061  1.0000  -1.1006   0.0000   0.3054
   2.500   0.4975   0.01136   0.00411  -0.0256  0.3595  1.0000  -1.1786   0.0000   0.2968
   3.000   0.5430   0.01177   0.00429  -0.0241  0.3277  1.0000  -1.2612   0.0000   0.2892
   3.500   0.5878   0.01223   0.00457  -0.0223  0.3058  1.0000  -1.3459   0.0000   0.2824
   4.000   0.6327   0.01270   0.00492  -0.0204  0.2886  1.0000  -1.4347   0.0000   0.2763
   4.500   0.6774   0.01324   0.00533  -0.0185  0.2747  1.0000  -1.5287   0.0000   0.2709
   5.000   0.7225   0.01381   0.00583  -0.0166  0.2626  1.0000  -1.6274   0.0000   0.2661
   5.500   0.7680   0.01439   0.00639  -0.0148  0.2516  1.0000  -1.7319   0.0000   0.2619
   6.000   0.8138   0.01503   0.00702  -0.0130  0.2415  1.0000  -1.8435   0.0000   0.2581
   6.500   0.8599   0.01573   0.00774  -0.0113  0.2322  1.0000  -1.9639   0.0000   0.2548
   7.000   0.9062   0.01648   0.00849  -0.0097  0.2234  1.0000  -2.0955   0.0000   0.2518
   7.500   0.9532   0.01730   0.00929  -0.0083  0.2149  1.0000  -2.2448   0.0000   0.2492
   8.000   0.9998   0.01801   0.01009  -0.0069  0.2061  1.0000  -2.4274   0.0000   0.2467
   8.500   1.0463   0.01881   0.01102  -0.0055  0.1974  1.0000  -2.6542   0.0000   0.2445
   9.000   1.0924   0.01964   0.01197  -0.0041  0.1887  1.0000  -2.9139   0.0000   0.2423
   9.500   1.1378   0.02044   0.01290  -0.0027  0.1799  1.0000  -3.2023   0.0000   0.2403
  10.000   1.1817   0.02119   0.01376  -0.0011  0.1705  1.0000  -3.5097   0.0000   0.2381
  10.500   1.2238   0.02189   0.01462   0.0006  0.1606  1.0000  -3.8376   0.0000   0.2359
  11.000   1.2637   0.02263   0.01553   0.0026  0.1504  1.0000  -4.1703   0.0000   0.2335
  11.500   1.3011   0.02343   0.01652   0.0049  0.1397  1.0000  -4.5273   0.0000   0.2310
  12.000   1.3349   0.02435   0.01761   0.0075  0.1286  1.0000  -4.8802   0.0000   0.2283
  12.500   1.3615   0.02555   0.01891   0.0109  0.1174  1.0000  -5.2115   0.0000   0.2251
  13.000   1.3822   0.02707   0.02069   0.0147  0.1047  1.0000  -5.5223   0.0000   0.2216
  13.500   1.3953   0.02940   0.02313   0.0181  0.0925  1.0000  -5.8194   0.0000   0.2182
  14.000   1.4027   0.03271   0.02663   0.0206  0.0799  1.0000  -6.0812   0.0000   0.2155
  14.500   1.3983   0.03772   0.03178   0.0217  0.0702  1.0000  -6.2718   0.0000   0.2136
  15.000   1.3870   0.04445   0.03873   0.0207  0.0625  1.0000  -6.4074   0.0000   0.2130


